ADAMSMAT2  MSC.NASTRAN JOB CREATED ON 13-MAR-14 AT 10:38:36  KILOGRAM  METER  SECOND  NEWTON  TTTTFTTTF [D:/Documents/DeformableObjectModeling/StewartPlatform/yg_30gpa_carbon_0.mnf@Thu Mar 13 13:23:15 2014 ]
12
SELMOD            SELNOD            GENSTIFF          INVAR1            
INVAR2            INVAR3            INVAR4            INVAR6            
INVAR7            INVAR8            T_MODE            R_MODE            
SELNOD    FULL    RORDER      6    4   24   ( 1I8, 3E22.14 )
      41 0.00000000000000E+000 0.00000000000000E+000 0.00000000000000E+000
      42 5.00000000000000E-001 0.00000000000000E+000 0.00000000000000E+000
      46 7.50000000000000E-001 4.32999998331070E-001 0.00000000000000E+000
      50 5.00000000000000E-001 8.65999996662140E-001 0.00000000000000E+000
      54 0.00000000000000E+000 8.65999996662140E-001 0.00000000000000E+000
      58-2.50000000000000E-001 4.32999998331070E-001 0.00000000000000E+000
SELMOD    FULL    RORDER     40    2   80   ( 1I8, 1E22.14 )
       7 4.55481155963764E+001
       8 4.55579218320918E+001
       9 7.48925563968826E+001
      10 9.66244686561444E+001
      11 1.11313848791011E+002
      12 1.63159029607568E+002
      13 1.63600656657485E+002
      14 1.75124399874198E+002
      15 1.80341999550824E+002
      16 2.74641559451881E+002
      17 2.74772666423075E+002
      18 2.82144315833764E+002
      19 2.95811963443190E+002
      20 5.28349826266706E+002
      21 6.09615940500951E+002
      22 6.18228495364971E+002
      23 6.89715803273797E+002
      24 6.91327879437709E+002
      25 9.03326504807494E+002
      26 1.07376487176311E+003
      27 1.18403552199259E+003
      28 1.24132068507872E+003
      29 1.24837927318167E+003
      30 1.24983775778659E+003
      31 1.35606596662478E+003
      32 2.82849050810079E+003
      33 2.82938216735511E+003
      34 2.89942059550619E+003
      35 2.90129677611002E+003
      36 3.84360127889165E+003
      37 4.03257484698225E+003
      38 4.03487121716396E+003
      39 4.20605198904556E+003
      40 4.53011985153840E+003
      41 6.19494140074944E+005
      42 6.52779040958080E+005
      43 6.53080315186101E+005
      44 7.64203158332714E+005
      45 7.64538944867783E+005
      46 8.28805475909123E+005
INVAR1    FULL    RORDER      1    1    1   ( 1E22.14 )
 1.29899997022978E+001 
INVAR2    FULL    RORDER      1    3    3   ( 3E22.14 )
 3.24749993187663E+000 5.62466990955625E+000 0.00000000000000E+000
INVAR3    SPARSE      3   40   32   ( 2I8, E22.14 )
       1      14 2.05898843380617E-010
       1      15 2.55763272828261E-010
       1      16 1.60875843933261E-010
       1      17 1.50248435768785E-010
       1      18 3.04131956253511E-010
       1      19-7.78714468503202E-010
       1      20-9.99596562939404E-010
       1      22 6.48999719506322E-009
       1      23-1.26750000475333E-009
       1      24-2.61086383697302E-009
       1      25-2.40185166537087E-010
       2      13 1.20429109928292E-010
       2      14-1.59179031743029E-010
       2      15-5.31439841986028E-010
       2      16 3.63583103324068E-010
       2      17 6.02600294973160E-010
       2      18 3.60751950480908E-010
       2      19-2.35866880239354E-009
       2      20 2.73559158361982E-009
       2      21-4.76101738278065E-010
       2      22 1.26406782086013E-009
       2      23 1.50721714611567E-010
       2      24-5.50707677799489E-010
       2      25-8.90814936927923E-010
       2      28-2.72203912188296E-010
       3      20-1.07043505142960E-010
       3      21 3.88830953112346E-010
       3      22 1.57090493391188E-009
       3      23 3.35464036757549E-010
       3      24-5.05786447446699E-010
       3      25-5.78755811938420E-010
       3      28-1.84903236334592E-009
INVAR4    SPARSE      3   40   23   ( 2I8, E22.14 )
       1      21 2.43909014296592E-010
       1      22 7.39967972313016E-010
       1      24-2.53346029051305E-010
       1      25-2.71197176044194E-010
       1      28-9.33697114262444E-010
       2      21-1.27874220869247E-010
       2      22-4.86934662730087E-010
       2      23-1.78499811719773E-010
       2      24 1.99660440958205E-010
       2      25 1.30832066317851E-010
       2      28 5.38356926782093E-010
       3      14-3.25011396985328E-010
       3      15-6.01993966636339E-010
       3      17 2.57734571058033E-010
       3      18 5.37577804887217E-010
       3      19-1.01719052620272E-009
       3      20 2.72599317314727E-009
       3      21 8.48243387537864E-010
       3      22-4.83108964357704E-009
       3      23 6.94883245547144E-010
       3      24 3.51008056686563E-009
       3      25-2.02337985602460E-010
       3      28-1.04353583066374E-010
INVAR6    SPARSE     40   40   40   ( 2I8, E22.14 )
       1       1 1.00000000000000E+000
       2       2 1.00000000000000E+000
       3       3 1.00000000000000E+000
       4       4 1.00000000000000E+000
       5       5 1.00000000000000E+000
       6       6 1.00000000000000E+000
       7       7 1.00000000000000E+000
       8       8 1.00000000000000E+000
       9       9 1.00000000000000E+000
      10      10 1.00000000000000E+000
      11      11 1.00000000000000E+000
      12      12 1.00000000000000E+000
      13      13 1.00000000000000E+000
      14      14 1.00000000000000E+000
      15      15 1.00000000000000E+000
      16      16 1.00000000000000E+000
      17      17 1.00000000000000E+000
      18      18 1.00000000000000E+000
      19      19 1.00000000000000E+000
      20      20 1.00000000000000E+000
      21      21 1.00000000000000E+000
      22      22 1.00000000000000E+000
      23      23 1.00000000000000E+000
      24      24 1.00000000000000E+000
      25      25 1.00000000000000E+000
      26      26 1.00000000000000E+000
      27      27 1.00000000000000E+000
      28      28 1.00000000000000E+000
      29      29 1.00000000000000E+000
      30      30 1.00000000000000E+000
      31      31 1.00000000000000E+000
      32      32 1.00000000000000E+000
      33      33 1.00000000000000E+000
      34      34 1.00000000000000E+000
      35      35 1.00000000000000E+000
      36      36 1.00000000000000E+000
      37      37 1.00000000000000E+000
      38      38 1.00000000000000E+000
      39      39 1.00000000000000E+000
      40      40 1.00000000000000E+000
INVAR7    FULL    RORDER      3    3    9   ( 3E22.14 )
 3.13746950770308E+000-1.40616182108440E+000 0.00000000000000E+000
-1.40616182108440E+000 1.51385276457757E+000 0.00000000000000E+000
 0.00000000000000E+000 0.00000000000000E+000 4.65132227228065E+000
INVAR8    FULL    RORDER     40    9  360   ( 9E22.14 )
 0.00000000000000E+000 0.00000000000000E+000 0.00000000000000E+000
 0.00000000000000E+000 0.00000000000000E+000 0.00000000000000E+000
 0.00000000000000E+000 0.00000000000000E+000 0.00000000000000E+000
 0.00000000000000E+000 0.00000000000000E+000 0.00000000000000E+000
 0.00000000000000E+000 0.00000000000000E+000 0.00000000000000E+000
 0.00000000000000E+000 0.00000000000000E+000 0.00000000000000E+000
 0.00000000000000E+000 0.00000000000000E+000 0.00000000000000E+000
 0.00000000000000E+000 0.00000000000000E+000 0.00000000000000E+000
 0.00000000000000E+000 0.00000000000000E+000 0.00000000000000E+000
 0.00000000000000E+000 0.00000000000000E+000 0.00000000000000E+000
 0.00000000000000E+000 0.00000000000000E+000 0.00000000000000E+000
 0.00000000000000E+000 0.00000000000000E+000 0.00000000000000E+000
 0.00000000000000E+000 0.00000000000000E+000 0.00000000000000E+000
 0.00000000000000E+000 0.00000000000000E+000 0.00000000000000E+000
 0.00000000000000E+000 0.00000000000000E+000 0.00000000000000E+000
 0.00000000000000E+000 0.00000000000000E+000 0.00000000000000E+000
 0.00000000000000E+000 0.00000000000000E+000 0.00000000000000E+000
 0.00000000000000E+000 0.00000000000000E+000 0.00000000000000E+000
 0.00000000000000E+000 0.00000000000000E+000 0.00000000000000E+000
 0.00000000000000E+000 0.00000000000000E+000 0.00000000000000E+000
 0.00000000000000E+000 0.00000000000000E+000 0.00000000000000E+000
 0.00000000000000E+000 0.00000000000000E+000 0.00000000000000E+000
 0.00000000000000E+000 0.00000000000000E+000 0.00000000000000E+000
 0.00000000000000E+000 0.00000000000000E+000 0.00000000000000E+000
 0.00000000000000E+000 0.00000000000000E+000 0.00000000000000E+000
 0.00000000000000E+000 0.00000000000000E+000 0.00000000000000E+000
 0.00000000000000E+000 0.00000000000000E+000 0.00000000000000E+000
 0.00000000000000E+000 0.00000000000000E+000 0.00000000000000E+000
 0.00000000000000E+000 0.00000000000000E+000 0.00000000000000E+000
 0.00000000000000E+000 0.00000000000000E+000 0.00000000000000E+000
 0.00000000000000E+000 0.00000000000000E+000 0.00000000000000E+000
 0.00000000000000E+000 0.00000000000000E+000 0.00000000000000E+000
 0.00000000000000E+000 0.00000000000000E+000 0.00000000000000E+000
 0.00000000000000E+000 1.47540099116079E-010 0.00000000000000E+000
 1.36221504941051E-010 0.00000000000000E+000 0.00000000000000E+000
 0.00000000000000E+000 0.00000000000000E+000 0.00000000000000E+000
 0.00000000000000E+000 0.00000000000000E+000 0.00000000000000E+000
 0.00000000000000E+000 0.00000000000000E+000 0.00000000000000E+000
 0.00000000000000E+000 0.00000000000000E+000 0.00000000000000E+000
 0.00000000000000E+000 1.87273114241130E-010 0.00000000000000E+000
-1.37738282744198E-010 0.00000000000000E+000 0.00000000000000E+000
 0.00000000000000E+000 0.00000000000000E+000 0.00000000000000E+000
 2.30126389782504E-010 2.89595195005591E-010 0.00000000000000E+000
-3.12398771630747E-010 0.00000000000000E+000 0.00000000000000E+000
 0.00000000000000E+000 0.00000000000000E+000 1.66336996221770E-010
-1.57400438905353E-010 0.00000000000000E+000 0.00000000000000E+000
 1.19093034532706E-010 0.00000000000000E+000 0.00000000000000E+000
 0.00000000000000E+000 0.00000000000000E+000-1.97668777866107E-010
-2.60677873042062E-010 0.00000000000000E+000 0.00000000000000E+000
 2.39795199237782E-010 0.00000000000000E+000 0.00000000000000E+000
 0.00000000000000E+000 0.00000000000000E+000-2.99712107085891E-010
-1.56360197600390E-010-1.55391984156716E-010 0.00000000000000E+000
 3.82185820730502E-010 0.00000000000000E+000 0.00000000000000E+000
 0.00000000000000E+000 0.00000000000000E+000-2.33949886450110E-010
 1.04409358281208E-009-1.49061468942290E-010 0.00000000000000E+000
-1.16625199514501E-009 2.71484462880572E-010 0.00000000000000E+000
 0.00000000000000E+000 0.00000000000000E+000 1.31557804569265E-009
-1.18519811382220E-009-1.23349773573853E-009 0.00000000000000E+000
 1.49249543740875E-009 2.48462051174799E-010 0.00000000000000E+000
 0.00000000000000E+000 0.00000000000000E+000-9.36736062647404E-010
 2.06055114598366E-010-5.03024933889674E-010 0.00000000000000E+000
 3.45218453648190E-010 0.00000000000000E+000 0.00000000000000E+000
 1.27874210515116E-010 2.43909005839815E-010 2.26868718849543E-010
-5.46912260533940E-010 3.97288863636905E-009 0.00000000000000E+000
-8.58201007207991E-010-1.62007955509513E-009 0.00000000000000E+000
 4.86934659260641E-010 7.39967930679653E-010-2.16699181562907E-009
 0.00000000000000E+000-6.01519447760916E-010 0.00000000000000E+000
 0.00000000000000E+000 3.15181297377976E-010 0.00000000000000E+000
 1.78499808033486E-010 0.00000000000000E+000 2.48914696901165E-010
 2.37573432486675E-010-2.39719534834519E-009 0.00000000000000E+000
 1.11288521852044E-009 6.57391851152290E-010 0.00000000000000E+000
-1.99660523357570E-010-2.53346063745774E-010 8.94965283638965E-010
 3.50088036311149E-010 2.85771961983153E-010 0.00000000000000E+000
 0.00000000000000E+000 0.00000000000000E+000 0.00000000000000E+000
-1.30832066101011E-010-2.71197169105300E-010 2.81649930867434E-010
-8.36200736793699E-002-5.30809073444522E-001 0.00000000000000E+000
-5.30809073444522E-001 8.31906917796345E-002 0.00000000000000E+000
 0.00000000000000E+000 0.00000000000000E+000-4.29381899735339E-004
 5.31008862097780E-001-8.34466245165807E-002 0.00000000000000E+000
-8.34466245165802E-002-5.30795671750016E-001 0.00000000000000E+000
 0.00000000000000E+000 0.00000000000000E+000 2.13190347764528E-004
 6.02943053912334E-003 1.23869804080142E-002 0.00000000000000E+000
 1.23869803036605E-002-6.59323905369249E-003 0.00000000000000E+000
-5.38356926782093E-010-9.33697114262444E-010-5.63808514569376E-004
-8.90695727572976E-003 5.51805755504464E-003 0.00000000000000E+000
 5.51805755504477E-003 9.20141457140668E-003 0.00000000000000E+000
 0.00000000000000E+000 0.00000000000000E+000 2.94457295676995E-004
-4.19688506636100E-004 5.42176261868346E-004 0.00000000000000E+000
 5.42176261868649E-004-5.70552942379436E-005 0.00000000000000E+000
 0.00000000000000E+000 0.00000000000000E+000-4.76743800874049E-004
-1.27899987762826E-001 2.46021382695330E-002 0.00000000000000E+000
 2.46021382695326E-002 1.31182143562783E-001 0.00000000000000E+000
 0.00000000000000E+000 0.00000000000000E+000 3.28215579995767E-003
-2.09380007740255E-002-1.29625279041965E-001 0.00000000000000E+000
-1.29625279041965E-001 2.85299994039849E-002 0.00000000000000E+000
 0.00000000000000E+000 0.00000000000000E+000 7.59199862995938E-003
 5.32077775728857E-001 7.18789398210282E-004 0.00000000000000E+000
 7.18789398209822E-004 5.31111922210790E-001 0.00000000000000E+000
 0.00000000000000E+000 0.00000000000000E+000 1.06318969793965E+000
 9.47371566729137E-004 4.08907487996594E-005 0.00000000000000E+000
 4.08907487991761E-005 1.35190328178773E-005 0.00000000000000E+000
 0.00000000000000E+000 0.00000000000000E+000 9.60890599547015E-004
 7.90648282587357E-004-2.41553090934160E-004 0.00000000000000E+000
-2.41553089307350E-004-9.66770862982541E-004 0.00000000000000E+000
 0.00000000000000E+000 0.00000000000000E+000-1.76122580395174E-004
 6.32056715371202E-002-1.72005906024969E-001 0.00000000000000E+000
-1.72005906024810E-001-6.30750136243895E-002 0.00000000000000E+000
 0.00000000000000E+000 0.00000000000000E+000 1.30657912730636E-004
-1.71777125972989E-001-6.31210205923229E-002 0.00000000000000E+000
-6.31210205882041E-002 1.72019916749787E-001 0.00000000000000E+000
 0.00000000000000E+000 0.00000000000000E+000 2.42790776797849E-004
 1.16905335777128E-004 1.78835519903264E-004 0.00000000000000E+000
 1.78835523422637E-004 3.36418548008193E-004 0.00000000000000E+000
 0.00000000000000E+000 0.00000000000000E+000 4.53323883785429E-004
-3.47993248877900E-004-4.05527081727199E-004 0.00000000000000E+000
-4.05527081493333E-004-4.23094057512285E-004 0.00000000000000E+000
 0.00000000000000E+000 0.00000000000000E+000-7.71087306390225E-004
-1.11271064285523E-003 2.67830258726767E-004 0.00000000000000E+000
 2.67830254947126E-004-1.13011752066860E-003 0.00000000000000E+000
 0.00000000000000E+000 0.00000000000000E+000-2.24282816352379E-003
GENSTIFF  SPARSE     40   40   40   ( 2I8, E22.14 )
       1       1 8.19031424545751E+004
       2       2 8.19384127601915E+004
       3       3 2.21430299253522E+005
       4       4 3.68581874291576E+005
       5       5 4.89168108276703E+005
       6       6 1.05094978110236E+006
       7       7 1.05664675032793E+006
       8       8 1.21074603863932E+006
       9       9 1.28396592431452E+006
      10      10 2.97777753739754E+006
      11      11 2.98062124815953E+006
      12      12 3.14269581525298E+006
      13      13 3.45454778834867E+006
      14      14 1.10205399850639E+007
      15      15 1.46714272989452E+007
      16      16 1.50889067317046E+007
      17      17 1.87801947109076E+007
      18      18 1.88680873912805E+007
      19      19 3.22143403759788E+007
      20      20 4.55174706171046E+007
      21      21 5.53463774086677E+007
      22      22 6.08313873885950E+007
      23      23 6.15251718815721E+007
      24      24 6.16690158813539E+007
      25      25 7.25974505915602E+007
      26      26 3.15841495995879E+008
      27      27 3.16040660448938E+008
      28      28 3.31880836265076E+008
      29      29 3.32310487519816E+008
      30      30 5.83225353673280E+008
      31      31 6.41984600334693E+008
      32      32 6.42715971284708E+008
      33      33 6.98407685287411E+008
      34      34 8.10175528219147E+008
      35      35 1.51507503481980E+013
      36      36 1.68225621137000E+013
      37      37 1.68380937826080E+013
      38      38 2.30556511959949E+013
      39      39 2.30759166921289E+013
      40      40 2.71184560702272E+013
T_MODE    FULL    CORDER      3  240  720   ( 3E22.14 )
 4.15020110453395E-013-5.97958167411495E-013-1.22628589425066E-001
-6.93496822805653E-014 7.12760347840500E-014 7.16457168787073E-001
-5.72795647271714E-013 1.28977751243994E-013 5.17160236982744E-001
-4.40804509927701E-013 2.65209038761228E-013 8.02697101221432E-001
-2.61639197564015E-013 2.09158812442106E-013-4.17050819806512E-003
-3.22057642362827E-012 2.04273980462916E-012 2.80191339119969E-001
-5.52131918058185E-012 4.10794819140707E-012-8.34563903039696E-001
-2.27117747185121E-011 3.46832106374517E-011 1.87917464678026E-001
-3.63290033178889E-012 1.37665763079401E-012-1.03275846775291E+000
 1.51346359576059E-012 6.67029513826145E-012-6.64133170206882E-001
 2.36474221031721E-011 3.81750607973666E-015 7.75795666993485E-001
-1.09478094222469E-010 1.60960963515816E-010-8.41760744507820E-002
 6.60375254141666E-012 1.35596893209146E-011-1.00608757130216E+000
-4.46705105286011E-011 2.27471541548401E-011-1.01648676052262E+000
-9.05700267900421E-011 2.25420833378314E-011 1.02685790562936E+000
 2.96844419732784E-011 1.80641279128238E-011 6.05600951333926E-004
 6.45603721243375E-011 1.86917184723136E-011-5.91678592886457E-001
 2.01442428831441E-010-6.81914137443889E-011 7.89896713445939E-001
-1.21079878520586E-010-2.33138404415002E-010-2.38570720191655E-001
 4.15425867045710E-010-7.25699679414430E-011 8.51424877700658E-001
 2.83512736258389E-010-2.05097795619832E-010 1.23909767101980E-002
-2.16296351347959E-010 5.06681745418279E-010-5.84049443892040E-001
-6.61689736160095E-011 4.73582922005615E-012-6.77559172289291E-001
 5.75688213014850E-010-5.03289583152315E-010 7.29862697366185E-002
-4.43768069441119E-010 2.16629371970308E-010-2.01236550290517E-003
 4.53143505683830E-001 5.01341667051666E-001 4.63557890845799E-011
 9.28382397429791E-002 5.75977484984361E-001 6.32467613818739E-012
-8.69205115655406E-001 2.17191403989743E-001-1.26847927051185E-010
-2.69261291007137E-001 5.78847990457231E-001 6.09331994201705E-012
 3.83847848919789E-001 6.88165134820631E-001-3.59500577075131E-012
 9.98262881602170E-001-3.96268295266054E-001 1.06971706697059E-011
 7.07686262281100E-001-6.03312495030478E-001-1.06922779537173E-012
 4.01565106021019E-001 7.17812825951261E-001 9.66699320115840E-012
 9.44814963980427E-001-5.36962292319124E-001-2.67444606797175E-013
 4.15527917318300E-002-2.96151358490828E-002 4.07512142008885E-012
-3.16267066248705E-001-4.87567536614183E-001 1.85000031357762E-011
-1.07626111365028E-001 1.79206193451382E-001 1.07880951526944E-011
 7.39159111084045E-002 6.35771044034987E-001-2.81192319960993E-012
-6.81967251318084E-001 1.39078787786385E-001-1.76173549207643E-011
 6.13142280247445E-001-3.50825297122101E-001-1.52783877904514E-012
 4.14627223584019E-013-7.66594670456371E-013 6.81209094876466E-001
-6.93268816202898E-014 5.39983142198804E-014-2.51603627444871E-001
-5.72740325273458E-013-5.21565468879567E-013 5.19070082258425E-001
-4.40365567191247E-013-2.61288571281184E-013-8.02514513381770E-001
-2.61591658055372E-013-6.72799562452143E-014 4.41884159499709E-003
-3.20986348042231E-012-8.84783805327439E-013-5.78480674182336E-001
-5.51402757361966E-012-1.36391481125643E-012-6.62785868448744E-001
-2.23905875270259E-011 4.40478224630034E-011-8.97691395830603E-001
-3.63632514295611E-012-3.99644263478311E-012 3.29134823549204E-001
 1.68232747032700E-012 1.31213213936056E-011 3.70690778391988E-001
 2.36523557637772E-011 2.24976682711371E-011 9.36612780490196E-001
-1.05619859269570E-010 2.01578143499027E-010 8.21782881069646E-001
 6.83437511098007E-012 2.47214239870719E-011-9.58917585907990E-001
-4.46686648456766E-011-4.70445121245721E-011 3.35436443198597E-001
-9.05930987990879E-011-1.05196201006775E-010-1.01213845170189E+000
 2.96913832555542E-011 3.81129075094811E-011-1.69528760045021E-003
 6.49259143691545E-011 8.12260375089653E-011 3.68602240332462E-001
 2.02028135843000E-010 1.40076011644916E-010 9.07547087159864E-001
-1.73959678027690E-010-5.73979829554882E-010 1.18801366460825E+000
 4.17133194095868E-010 5.02073842766179E-010-2.89874302114888E-001
 2.83631608441768E-010 1.26681774653989E-010-4.44193022961043E-003
-2.19746988920698E-010-3.28905690390631E-010-4.70881432214212E-001
-6.36621974826202E-011 4.70559082893437E-011-4.20850217292656E-001
 5.70505387239056E-010 3.86845234425852E-010 6.42728823413587E-001
-2.28934235540670E-010 3.36542057694999E-010-6.38378588885516E-003
 4.79950204585513E-001-6.55061346922989E-001-2.21441291257621E-010
 4.15940519695503E-002 3.82657615701710E-001-2.72610109880645E-011
 2.35769131286208E-001-3.56331363963077E-001 1.59756890779235E-010
-8.68637294824771E-001-5.14988243036766E-001-2.98004457707572E-011
 3.97413478501482E-001-6.80359939791933E-001 1.78379976866158E-011
-1.19061898002407E+000-5.92752425790018E-001-5.18318308967374E-011
 2.85196636653472E-001 4.24401765002871E-001 5.14576540528398E-012
-4.06473504685601E-001 7.09665759359160E-001-4.71171669814920E-011
-9.34748172994115E-001-5.48778253239950E-001 1.29337888514178E-012
-4.55339876919775E-002-2.76328318469603E-002-2.00937549487307E-011
-3.10635793173292E-001 2.58198624542118E-001-1.04589298304456E-010
-1.23978402241425E-001 4.51756517194481E-001-6.71703602285359E-011
 1.43808611714168E-001 6.40868809421152E-001 3.69943659110238E-011
-6.74162356339642E-001 7.21484352069747E-002 6.53345226394926E-011
 6.15984161729752E-001 3.56139819950118E-001 3.40747589567384E-011
 5.60536894052153E-013-8.51119456252026E-013-5.58669337800876E-001
-5.43570431060250E-014 4.53713423763809E-014-4.64634796288143E-001
-9.35361070459955E-015-8.46798822457131E-013 5.18415714187799E-001
 1.57284026880326E-014-5.24306177069202E-013 8.03196921103004E-001
-2.21818375915210E-014-2.05473704592715E-013-2.99740989775365E-003
-6.70885324879810E-013-2.34500562092709E-012-8.63115970128026E-001
-7.75643117374997E-013-4.09573741696779E-012 1.73315646384088E-001
-3.03946261196064E-011 4.88987325919220E-011 7.00480823549322E-001
 1.01565490767908E-012-6.68478555050167E-012 6.96939983316944E-001
-3.83838092409862E-012 1.64164158308423E-011 9.92346285526667E-001
 4.15304296899111E-012 3.37429894561614E-011 1.95862141800779E-001
-1.39521718020975E-010 2.23914037597221E-010-5.63900835437877E-001
-2.75601973135274E-012 3.04242670583362E-011-1.02655937717010E+000
 1.57648232004688E-011-8.19471431801940E-011 6.93499590355113E-001
 1.99711990768883E-011-1.69122036419645E-010 1.02440853920231E+000
 1.23777075561220E-011 4.81852859997450E-011 5.53703808894615E-003
 1.09906928615886E-011 1.12616091371655E-010 9.83987448308876E-001
 2.17905634027164E-011 2.44542151533657E-010 1.19465461968210E-001
 1.03105244179471E-010-7.72328512586419E-010-9.34712681884856E-001
-8.03429108872794E-011 7.89908908883187E-010-5.45787010607947E-001
-4.36752638036250E-012 2.92317820059860E-010 2.23743276772381E-002
 5.02946051977214E-010-7.49047450432583E-010-5.12651222926229E-001
-1.00609137969076E-010 6.98772837594789E-011 2.15000383308417E-001
-2.01059351065186E-010 8.30753214301839E-010 7.13354306547778E-001
-2.54640761993584E-010 5.10915629124864E-010-2.07469967208706E-002
-1.23541284019719E-001-2.43125492067524E-001 1.61399814886645E-010
 8.48601541145923E-001-5.57381679333501E-002 1.95759981656226E-011
 2.23067196271777E-001 8.89732849051231E-001-4.09277219819338E-010
 3.79039999477146E-001-4.76446166629418E-001 2.20245079961594E-011
-7.86482640459523E-001-1.98271811055316E-003-1.26683562306364E-011
 2.31388228810558E-001 2.69148103903867E-001 3.81437952056141E-011
 3.36273711069495E-002-1.37421149080234E+000-3.81973073741088E-012
-8.23491404266831E-001 1.04868328332504E-002 3.48910301476683E-011
-1.17560967568093E-002 1.08846181052939E+000-9.72953540274184E-013
-2.77100702440294E-003 4.88114506128615E-002 1.65007977460676E-011
-1.99804684221755E-001 1.77018847921956E-001 7.35375875591991E-011
 5.55493767617744E-001 6.44055450612456E-002 5.21912539884176E-011
 1.02955977576006E-001 6.92464481380341E-001-3.45370271103816E-011
-6.19122835009260E-001 1.17389770308143E-001-5.13462045819981E-011
 1.29224751214229E-004 7.09526632344003E-001-2.32018108879657E-011
 7.06617974040137E-013-7.66735329402176E-013-1.23299875279285E-001
-3.93973256745876E-014 5.40062038962138E-014 7.16294399819565E-001
 5.54003812092614E-013-5.21535929555162E-013 5.16591414076757E-001
 4.71629956406903E-013-2.61131856521374E-013-8.02834175562597E-001
 2.17205421692478E-013-6.72615309134371E-014 1.89738678323895E-003
 1.86539382806386E-012-8.84133599003163E-013-2.78457988271373E-001
 3.96273587799834E-012-1.36438186955654E-012 8.34612313223350E-001
-3.85386303522135E-011 4.41625574452032E-011 1.89022049319266E-001
 5.66911914763831E-012-3.99765201932323E-012-1.02769302915817E+000
-9.42460152458239E-012 1.31659594702357E-011 6.55696454080614E-001
-1.53168805884775E-011 2.24617327435725E-011-7.81726339268466E-001
-1.75111236802109E-010 2.02954110198933E-010-1.51099297384377E-001
-1.24468849933749E-011 2.48058409991308E-011-1.00535151013028E+000
 7.62339561970164E-011-4.70256232670822E-011-1.01297563015577E+000
 1.30674075555152E-010-1.05160165970798E-010-1.03964228261138E+000
-5.09417342689830E-012 3.80501888711708E-011 3.32715615301034E-004
-4.30740667168684E-011 8.12816573204155E-011 5.97885207622770E-001
-1.58709584271317E-010 1.40014193334761E-010-7.75359698928497E-001
 4.04158852063708E-010-5.92758522381415E-010-2.15210029236600E-001
-5.77500160412886E-010 5.03071920630646E-010 8.50634760764254E-001
-2.92058940248135E-010 1.26825810954797E-010 2.20059390268828E-002
 1.22690492613490E-009-3.29743236023582E-010-6.52832128602112E-001
-1.37282343589862E-010 4.71242475038423E-011 5.81062271090902E-001
-9.73633660343101E-010 3.86672705706252E-010 2.14584308655619E-001
-3.83488916958726E-010 4.12015854081946E-010-4.97892751308123E-003
-4.98026668865281E-001-4.82431091952955E-001 4.14356360491641E-011
-8.75622569339714E-002-5.58536683495224E-001 6.11845243469604E-012
-8.46352930436965E-001 2.33017745121667E-001-3.04718995386667E-010
-2.58657222613350E-001 6.06800325116230E-001 5.88923034614331E-012
 3.87950106068255E-001 6.83162732943453E-001-3.21926502859269E-012
-9.90409441802630E-001 3.88620226686131E-001 9.72106501834465E-012
-7.05235639728774E-001 6.12467135745286E-001-9.44861978667926E-013
-4.04552309018419E-001-7.16759010817058E-001 8.97283517412583E-012
 9.54508905153344E-001-5.39496773687839E-001-2.51361336450366E-013
 4.45213211762400E-002-2.39646651561089E-002-1.06453562114208E-012
 3.19818185158453E-001 4.87134774397714E-001 1.15695908930564E-011
 1.06477879461147E-001-1.80590666890685E-001 1.21779675169163E-011
 8.18647701339019E-002 6.30850683823559E-001-3.83145661292039E-012
-6.80255857482868E-001 1.40756081797999E-001-1.30929613593559E-011
-6.13178189591519E-001 3.56716744763382E-001-1.02241025117969E-012
 7.06374702540417E-013-5.97809578690214E-013 6.81233430746627E-001
-3.93829232803576E-014 7.12676360620116E-014-2.51548369180674E-001
 5.54036010425832E-013 1.28955188236372E-013 5.17697870436988E-001
 4.71902887573356E-013 2.65041601970781E-013 8.02172251754462E-001
 2.17236184313400E-013 2.09140773058159E-013-4.09026490705581E-003
 1.87312621908349E-012 2.03991559450387E-012 5.84954546284826E-001
 3.96903213545152E-012 4.10853045500055E-012 6.63379991086515E-001
-3.83395545862434E-011 3.45618067047902E-011-8.89867663618322E-001
 5.66698897961497E-012 1.37794502866144E-012 3.32488356840232E-001
-9.31744033689408E-012 6.60657421431902E-012-3.30284015698986E-001
-1.52940965948266E-011 3.35356324628255E-014-9.78829519595701E-001
-1.72714109987773E-010 1.59501036600475E-010 7.70060342996266E-001
-1.23046879650009E-011 1.34724730476971E-011-9.51514615016954E-001
 7.62185445083709E-011 2.27615326522734E-011 3.27380068227765E-001
 1.30578271020676E-010 2.26001367719973E-011 1.04130014122966E+000
-5.00302541114814E-012 1.80000732561041E-011 2.41155388285695E-003
-4.28196164168182E-011 1.85233211875976E-011-3.85766886955952E-001
-1.58156961360914E-010-6.83182974896026E-011-9.27820127116471E-001
 3.70479420275537E-010-2.12862940288997E-010 1.17588122594814E+000
-5.77083217272447E-010-7.27761064172641E-011-2.80164062319225E-001
-2.91122650062314E-010-2.03587927496304E-010 2.30229454424757E-002
 1.22404750356537E-009 5.07399233689815E-010-7.62716996779195E-001
-1.35621765149538E-010 5.50940772748144E-012 3.05963588539244E-001
-9.75984202298585E-010-5.02223904712653E-010-3.42826599154888E-001
-2.41513412666661E-010 1.32125692053496E-010 2.26654813654570E-002
-4.81489251939677E-001 6.29458343947444E-001-2.08566358312365E-010
-7.76255557701096E-002-3.96116228877171E-001-2.39693721423710E-011
 2.58367428462812E-001-3.93008852593209E-001 1.15483293994732E-010
-8.58401502180334E-001-5.10809450246512E-001-2.77995686427700E-011
 4.04579523298853E-001-6.71479105954765E-001 1.66150757788255E-011
 1.17891720965943E+000 5.90363920183332E-001-4.92129265617527E-011
-2.78222259912199E-001-4.31687892837081E-001 4.94167638532497E-012
 4.09669968165963E-001-7.09950869950733E-001-4.48244918190768E-011
-9.46644951063807E-001-5.56564045619735E-001 1.24066376683179E-012
-4.43832695128766E-002-2.53404857452162E-002-2.29321708189841E-011
 3.12300332922025E-001-2.57576131084076E-001-9.52801342363810E-011
 1.23022402235258E-001-4.52520057279654E-001-6.47895621864167E-011
 1.46747848982913E-001 6.44729497766444E-001 3.91288145838256E-011
-6.71733262009093E-001 7.31947164561312E-002 7.36215949990022E-011
-6.14707443904748E-001-3.50906391563777E-001 3.10712163841208E-011
 5.60580610664499E-013-5.13982711359369E-013-5.58923815351578E-001
-5.43598036995275E-014 7.99350938043639E-014-4.64125467100396E-001
-9.35422147682654E-015 4.54293095075784E-013 5.17145513541936E-001
 1.56786503078726E-014 5.28842316717311E-013-8.02605279872979E-001
-2.21868786750551E-014 3.47419103830511E-013 4.70941998632837E-003
-6.73807345143617E-013 3.51770405163819E-012 8.56341784462192E-001
-7.76971868585961E-013 6.85185552916668E-012-1.77168496642189E-001
-3.04303143881797E-011 3.02812315907964E-011 7.09290567712934E-001
 1.01604025870871E-012 4.06021098156369E-012 7.00467310199363E-001
-3.86881997906016E-012 3.60255668337268E-012-1.01952130162410E+000
 4.14109612974281E-012-1.12188248039293E-011-1.67612631156579E-001
-1.39952346725701E-010 1.44021909039302E-010-5.06015202273780E-001
-2.77999847902398E-012 8.17939490478251E-012-1.02376769428758E+000
 1.57880998934534E-011 5.76463207670612E-011 6.98511260916844E-001
 2.00202005015923E-011 8.63509869552690E-011-1.03274901477076E+000
 1.23008648585975E-011 8.07051108503426E-012-7.87204967143080E-003
 1.09018236883590E-011-1.21385315264275E-011-9.81650360992127E-001
 2.15734347342675E-011-1.71701179631620E-010-1.24041387927692E-001
 1.09063738075235E-010-1.09302615906264E-010-9.36579520873683E-001
-8.01136159089141E-011-3.58726199199641E-010-5.48852179746677E-001
-3.54307187411486E-012-3.71100560107915E-010 1.17148040897086E-002
 5.03146852691906E-010 9.20510742447772E-010-7.39000641002637E-001
-1.01297545100250E-010-1.36204860159792E-011-3.06287942219859E-001
-1.99694060381710E-010-9.53214269916972E-010-4.15935403874660E-001
-2.79731440165013E-010 3.48776161204133E-010-2.22918534937482E-002
 1.39918879880565E-001 2.79056852056507E-001 1.61976602890848E-010
-8.38029521479810E-001 2.60944484608469E-002 1.90259518791704E-011
 2.01664318083869E-001 8.75725331750156E-001-3.55543154881819E-010
 4.08919088761337E-001-4.81045099838481E-001 2.28511494772760E-011
-7.86775582797090E-001-1.86789498859718E-002-1.28988995276436E-011
-2.27949629059345E-001-2.59315300199249E-001 3.81404538458099E-011
-4.36259713098335E-002 1.37382310748547E+000-3.81474175780016E-012
 8.22571333272219E-001-1.00281868490800E-002 3.46859389717632E-011
-5.62382225461624E-003 1.09315421833521E+000-9.60412996063426E-013
 4.11443295042619E-003 4.98747596267113E-002 1.74539085902078E-011
 2.05102414074110E-001-1.75499859657077E-001 6.99501067408775E-011
-5.54861183096827E-001-6.30536951414074E-002 4.93790939474077E-011
 1.05030618757286E-001 6.98856798603628E-001-3.50101634483643E-011
-6.18041964325943E-001 1.13404931422701E-001-6.10912004186372E-011
 5.13255643036521E-004-7.04684783823667E-001-2.64813398789896E-011
R_MODE    FULL    CORDER      3  240  720   ( 3E22.14 )
-9.47241418948135E-001-2.45035599311769E+000-3.36478938370663E-013
-2.26811069216171E+000 7.96854199670801E-001-3.46007771201579E-014
-2.42806623331603E+000 1.39830076347759E+000-1.30121368666686E-012
-3.20220092438539E+000 1.87020620451797E+000-1.05388097585612E-012
 2.36111101172879E+000 4.05275792235751E+000-5.52972027545892E-013
-1.71136314900008E+000 1.52424848062364E+000-5.87091223689853E-012
 5.89050776614360E+000-3.18897800151971E+000-1.09571474377644E-011
-4.13121991078549E+000-4.61131313433399E+000 1.80799602144329E-011
 5.64024795106066E+000-4.67751549277105E+000-1.07392859069678E-011
 7.96672161299361E+000 2.10958023418279E+000 1.26031829624245E-011
-3.31853731945250E+000 7.87358807721714E+000 4.50096698213942E-011
-1.02086323742913E+000-4.07893572713382E+000 7.34266793562525E-011
 9.06283565156825E+000-5.49892040531440E+000 2.18527335960071E-011
 2.40514935612165E+001-8.55941808335153E+000-1.39647050486326E-010
-2.47076063763615E+001 1.41809915242391E+001-2.57280953761038E-010
-1.41405578391782E+001-2.44418260121459E+001 4.12478069041773E-011
 1.34719209021461E+000-3.11347574550022E+001 1.24935530889510E-010
-2.95005684767972E+001-6.37724491493220E+000 4.19761596304266E-010
 5.17742251629949E+000-1.10794231050504E+001-5.80021512115235E-010
-3.32982985366593E+001 2.87534440791936E+001 1.18470066953915E-009
-2.51533663001461E+001-4.23897007310753E+001-4.69130638767178E-010
 3.94372144226742E+001-1.25494275201092E+001-1.19376389982329E-010
 4.45569416106954E+001-3.01259824995172E+001-2.32523253590011E-009
 1.65702987831440E+001 3.76964901153272E+001-9.40940954304380E-010
 3.79640288484090E+001 6.26245314788456E+001 5.62506196953243E-010
 1.74581235383159E-008 3.44259726291455E-008-1.03644787760225E+000
 2.10350563036368E-009 4.24810724207259E-009 1.17816278279073E+000
-2.30760703839507E-008-4.66822812557207E-008-3.03687938327578E+000
 2.33521693189672E-009 4.19680237230039E-009-1.89107175113904E+000
-1.28921527163072E-009-2.61241290104953E-009-5.49205822688824E-002
 3.84881069981480E-009 7.71807832799893E-009 4.40430032417065E+000
-3.60665666689956E-010-7.76823030506788E-010 3.77860313950213E+000
 3.52047467081281E-009 6.92993721645123E-009-4.48633753126487E-002
-1.07239347062717E-010-1.91875232922957E-010 4.88047876963676E+000
 1.61329733249475E-009 3.08452648899705E-009-8.95116703982260E+004
 7.08378190195611E-009 1.46047864957582E-008-2.25108335857035E+004
 5.01902542619794E-009 1.01451824387558E-008-1.32423331271335E+005
-3.11317409731153E-009-5.08517849159716E-009-5.55980114820036E+004
-5.27424853550380E-009-1.01787441933449E-008-1.47063018632598E+005
-1.65448724497116E-009-3.52615882799642E-009 1.19981352961003E+005
-2.40069494820137E+000-3.32319302660265E-001-3.37482102867106E-013
-5.17512571316429E-001 2.55458919647162E+000-3.45430460388061E-014
-2.43144080223990E+000-1.40683754397418E+000-1.30106851295337E-012
 3.21654822262614E+000 1.84018467395035E+000-1.05276530176720E-012
 2.32512049591033E+000-4.07247259198042E+000-5.52849983237840E-013
 3.84288616029341E+000 2.61374413541620E+000-5.84418786837231E-012
 4.76592481126827E+000 2.37087794552459E+000-1.09356158414860E-011
 4.29250011973861E+000 4.74621181036987E+000 1.89005481755889E-011
-4.90030205595006E+000 3.89186481400599E+000-1.07480375559027E-011
-6.57041285177194E+000 4.72618078574503E+000 1.30226617610946E-011
-5.72862663733077E+000-6.41018159531958E+000 4.50420446003889E-011
-8.83291110203058E+000-3.89125033539998E+000 8.32855349859688E-011
 8.64350298517717E+000 5.04148125513046E+000 2.24438729270686E-011
 4.07777551255454E+000-2.36361559216860E+001-1.39715733670086E-010
 2.42573711431443E+001 1.42618598320052E+001-2.50860264946972E-010
 1.42014503563835E+001-2.44973122891538E+001 3.60610737620976E-011
 6.36201143996080E+000-3.18310314809466E+001 1.24332485511422E-010
-2.87385496769409E+001-1.67421827793376E+000 4.02226554168157E-010
-4.30826908316562E+001-2.28728942062939E+001-5.73466446532316E-010
 3.21683344111594E+001-2.64192116369246E+001 7.38824611527038E-010
-2.38308577928968E+001 4.19845167975284E+001 5.47542924015476E-009
 2.54738844610009E+001 1.89919079561199E+001-5.67452754737945E-009
 1.19685721552627E+001 4.55381513148068E+001 9.12678097168531E-009
-5.54827637836362E+001-4.19327006647987E+000 1.18989234971383E-008
 5.53701386572891E+000-2.41312615376566E+001-2.76909125766624E-009
 1.41765542441279E-008-6.99888849923574E-009-5.69204145897119E-001
 1.60262557768177E-009-7.97002418196004E-010-1.47936723765813E+000
-1.71223049846555E-008 9.34409381951517E-009 8.94240950168393E-002
 2.15701144331480E-009-6.98496944805163E-010-3.57024743755220E+000
-1.17838455973006E-009 5.41145937234618E-010 1.88502157461303E-002
 3.31732235100039E-009-1.48677710155616E-009-5.48022298924434E+000
-3.38518705322158E-010 1.78017132898896E-010 1.89098022836895E+000
 3.03657586346334E-009-1.26129127730176E-009 1.40852743292727E-002
-7.76310983433361E-011 2.36769241475057E-011-4.84455154934450E+000
 1.36864979339207E-009-4.92745595058872E-010 8.90418810347790E+004
 6.63047708526337E-009-2.80302008366793E-009-1.02411174000207E+005
 4.65293358842262E-009-1.90151060549304E-009 8.65056663711489E+004
-2.81230644297537E-009 6.77926384008024E-010 9.97252941340059E+004
-4.48786474123550E-009 1.82127143565735E-009-1.21494596990664E+005
-1.78785111693309E-009 5.94052287914588E-010 1.21051894422370E+005
-1.68352939104570E+000 1.84238633725538E+000-3.37441452132669E-013
 2.02603567102697E+000 1.53174585350108E+000-3.45452591031232E-014
-3.68237130773515E-003-2.80777877846885E+000-1.30104433721444E-012
-1.28810859544544E-002-3.71000083398162E+000-1.05281173556765E-012
-4.68985203833546E+000 1.58963225026845E-002-5.52854316622893E-013
 1.05843937794927E-001 6.90837394256723E+000-5.85124149482208E-012
 4.42640010237261E-001-1.39416545243810E+000-1.09202341524455E-011
-4.09843482858880E+000-4.74210854292203E+000 1.88669808259997E-011
 4.60198715365552E+000-4.87262485251591E+000-1.07477063221567E-011
-1.44986385499385E+000-8.68084611403054E+000 1.28949637810753E-011
 7.73882408373344E+000-1.76547206560060E+000 4.51602417272204E-011
-2.43365007665255E+000 6.67094858863651E+000 8.29108189999997E-011
-1.88360710620370E-001 1.08441398987866E+001 2.24199416967023E-011
-1.80372663914737E+001-1.71023950528571E+001-1.40042754675297E-010
-5.63376596975723E-001-2.84206105570632E+001-2.63916998683479E-010
 2.81350007154518E+001-1.30221401225563E-001 4.37024795888314E-011
 4.16846266699185E+000-2.78526362858400E+001 1.08269531280678E-010
-3.29679868014646E+001-3.38936130360687E+000 4.28515612431498E-010
-5.31364714439492E+000 3.86244304081312E+001-9.16670742690258E-010
-3.13430351251872E+001 2.76560151247554E+001 1.45045660015841E-009
 4.64137928926563E+001-1.33257524250099E+000-1.15439128562154E-009
 7.67116303287411E+000 3.46810032695185E+001 2.85572604273410E-009
-3.87274639129388E+001-1.76594696450722E+001 3.10944977429573E-009
 1.68683058669415E+001-5.55594128828127E+001 4.06334575583074E-009
 5.03577602114096E+001 7.34083291824005E+000-4.80435557575659E-009
 2.63981404360867E-008-5.44488838258649E-009 1.56129069215811E+000
 3.25351287084368E-009-7.53292836392572E-010 1.80872004524262E-001
-3.85542192967368E-008 8.52336453181903E-009 3.13152989259973E+000
 3.17352745598683E-009-6.27362552309766E-010-1.74295437481810E+000
-1.97928302185028E-009 4.23322063424144E-010-2.52220429628853E-003
 5.85555267613055E-009-1.40334855057845E-009 1.12273049360475E+000
-6.10272726301390E-010 1.23680934852312E-010-5.68365336665660E+000
 5.23025867750235E-009-1.29782379969295E-009 4.71942121541561E-002
-1.37511105698713E-010 4.49676508301467E-011 4.87960280505906E+000
 2.25676198726139E-009-7.26609229826156E-010-9.00404162501616E+004
 1.12873693181293E-008-2.81079257161219E-009 1.26419396232009E+005
 7.84180801448482E-009-1.94335125010170E-009 4.54247865142736E+004
-3.49444203901657E-009 1.12074914287349E-009 1.53920548601273E+005
-7.36179953662781E-009 2.21128446913352E-009 2.64200855088778E+004
-2.53933885365882E-009 7.02146206973511E-010 1.20696526778021E+005
 9.45795007929632E-001 2.45156001929259E+000-3.38338498920688E-013
 2.26930968829500E+000-7.95097349744873E-001-3.44933013188344E-014
 2.42526579669571E+000-1.39991542176953E+000-1.30092010873494E-012
-3.20488681189717E+000 1.86724252496496E+000-1.05180420324490E-012
 2.34980892132332E+000 4.05547173487378E+000-5.52737031536484E-013
-1.72338577827453E+000 1.47468391699495E+000-5.83114696678438E-012
 5.86994781135739E+000-3.22084257898530E+000-1.09285784221070E-011
 4.14248887980574E+000 4.61177911060031E+000 1.95991228333975E-011
-5.61879548878740E+000 4.63370677047555E+000-1.07554593777665E-011
 8.00215924735472E+000 2.36122976961102E+000 1.33266922143631E-011
-3.48241483730774E+000 7.70780426442698E+000 4.49454798951939E-011
 4.88732959016931E-001 4.30844139076494E+000 9.16712156175705E-011
-9.07977820322274E+000 5.46974690021240E+000 2.29451163669367E-011
-2.41163017173450E+001 8.31276756056934E+000-1.39998203718182E-010
-2.48369575231618E+001 1.46605543752555E+001-2.58526737889859E-010
 1.39930416330604E+001 2.42726024220521E+001 3.98813295669135E-011
 1.32907078585198E+000-3.15876547389917E+001 1.10510792091911E-010
-2.91133681597864E+001-6.62144355158615E+000 4.12556117640940E-010
-4.70102809104214E+000 9.71213425400935E+000-8.90674296298245E-010
 3.36979777088516E+001-2.80096942198019E+001 1.05262929984551E-009
-2.23047019491048E+001-4.18566929997180E+001 3.57821776195962E-009
-3.53546910215828E+001 3.05898753665647E+001-1.79325547454896E-009
 3.90830314650241E+001-2.58311193301670E+001 1.09481696382358E-008
 3.35178618592298E+001 2.64992557610254E+001 1.36718676656240E-008
-3.91847660266323E+001-6.47720543696117E+001-6.46848010549972E-009
-1.87805748739438E-008-3.63204988824832E-008-8.66344244745521E-001
-2.16757434703949E-009-4.36860316608074E-009 1.19829865740960E+000
 2.55070736277209E-008 5.04506903639467E-008 3.11013947836824E+000
-2.51878821859120E-009-5.30309592353089E-009 1.85931442710771E+000
 1.43283303709328E-009 2.74086788528908E-009 1.78153510231808E-002
-4.10039033248225E-009-8.00712508821583E-009 4.36245396220498E+000
 4.35494741207808E-010 7.92517900662930E-010 3.79977561826452E+000
-3.67885262003692E-009-7.33497796017438E-009-2.51468390142429E-002
 9.06061769172739E-011 2.01921000657806E-010-4.92043576855339E+000
-1.67671912282592E-009-3.26814745998601E-009 9.01790287277678E+004
-7.93767163978226E-009-1.53587986451308E-008-2.38216130189000E+004
-5.53745433206692E-009-1.08170170111566E-008-1.31574323929012E+005
 2.77578240200313E-009 6.02769477936381E-009 5.44977444647514E+004
 5.09107466847886E-009 1.04527139897216E-008 1.47028844537573E+005
 1.92351415185819E-009 3.82808589871165E-009 1.20825800900151E+005
 2.40228430033503E+000 3.32798801578131E-001-3.37468625863720E-013
 5.17838265317909E-001-2.55610840691776E+000-3.45451939964054E-014
 2.42780947478508E+000 1.40486945105354E+000-1.30100877062143E-012
 3.21696292304471E+000 1.83782210508424E+000-1.05277923600619E-012
 2.32609409276875E+000-4.07128340106403E+000-5.52849637511097E-013
 3.87016341637482E+000 2.65847534794176E+000-5.86834791381566E-012
 4.74965480772424E+000 2.40605715103189E+000-1.09564836028492E-011
-4.23226893913152E+000-4.71230385503023E+000 1.88877046426781E-011
 4.91422718067990E+000-3.86371630802909E+000-1.07478231552793E-011
-6.11096710232569E+000 4.87237563519355E+000 1.28852491715769E-011
-6.19773474511375E+000-6.55255453321477E+000 4.47883958192498E-011
 8.69520870186972E+000 3.11082914964855E+000 8.31125558226742E-011
-8.58627121767193E+000-4.98316444998695E+000 2.24487688765179E-011
-4.29429980432289E+000 2.35172076346357E+001-1.39179416669061E-010
 2.50337256305416E+001 1.43877530863103E+001-2.53134576978173E-010
-1.39354049647730E+001 2.42387774832443E+001 4.06149197152347E-011
 6.04436679391343E+000-3.22457669075518E+001 1.35737378543776E-010
-2.91645020714196E+001-2.15248720723579E+000 4.21676604102238E-010
 4.24598145459746E+001 2.29635379499854E+001-7.11856932659871E-010
-3.17963488119220E+001 2.65037135350135E+001 1.40617449584896E-009
-2.29163383820716E+001 4.25092977583108E+001-2.37846678093336E-009
-4.97421479861978E+001-2.34216414396297E+001-1.72738500471248E-009
 5.20771555488308E+000 4.10833770151938E+001-9.16069564740920E-009
-3.72805364127058E+001 6.72540792832707E+000-8.64868188174109E-009
-4.66181335610085E+000 2.66376669074195E+001 6.07211236972531E-009
-1.23909137968589E-008 7.99811209377134E-009-5.25988895794025E-001
-1.59732280773419E-009 1.07443703880144E-009-1.35278694225251E+000
 1.80708359283331E-008-1.18523515402205E-008-8.46921744537104E-002
-1.39442227668947E-009 1.29577110523706E-009 3.63970105714507E+000
 9.58404984724492E-010-5.18701040530576E-010-6.05270659711335E-002
-2.94300982995492E-009 1.61744717033022E-009-5.45514161060140E+000
 2.87061430834371E-010-1.31141766434614E-010 1.89496898617122E+000
-2.66197279832501E-009 1.53939724322045E-009 9.26572979245496E-003
 7.93543550066471E-011-5.34812058691126E-011 4.93049345487038E+000
-1.30697269481440E-009 7.67386678684285E-010-9.04259474080980E+004
-5.70006036665131E-009 2.98662896077376E-009-1.02474876326733E+005
-4.09777413049512E-009 2.06822893673411E-009 8.59938733050017E+004
 2.11252864745368E-009-1.35762498803996E-009-1.00560691525642E+005
 4.34256420605836E-009-2.09483577798102E-009 1.20571606935537E+005
 1.47960114085302E-009-9.00623411102576E-010 1.19982733680819E+005
 1.68248568545099E+000-1.84348454189530E+000-3.35273337158454E-013
-2.02798038193314E+000-1.53080968613284E+000-3.46719575447296E-014
 1.34134302224687E-003 2.80288382383291E+000-1.30135173984983E-012
-1.87644221335057E-002-3.70796997052989E+000-1.05523780296603E-012
-4.69215497601348E+000 2.34226518387230E-002-5.53119338555426E-013
 7.19165207686815E-002 6.86599480865491E+000-5.91529488057249E-012
 4.42999437598621E-001-1.41602840198167E+000-1.09839351223255E-011
 4.10233458008632E+000 4.81330919545507E+000 1.70955668977706E-011
-4.58828044220970E+000 4.89637158323314E+000-1.07287551042757E-011
-1.31911393767901E+000-9.00117260761682E+000 1.20056998554027E-011
 7.60439724227050E+000-1.42410799658969E+000 4.49154213386911E-011
 2.91444147898072E+000-6.14056037927137E+000 6.16244067013089E-011
 1.70532510636056E-001-1.08128403930058E+001 2.11548338908603E-011
 1.74999413432463E+001 1.72286095298011E+001-1.39489815453942E-010
-1.76303771793180E-002-2.86411698979398E+001-2.61638746249729E-010
-2.80664798340446E+001-2.21489775773158E-001 4.41059505378070E-011
 4.44027489105567E+000-2.77689181045946E+001 1.15911838703042E-010
-3.32796596557691E+001-3.53743317523999E+000 4.29522356312769E-010
 4.80264955977406E+000-3.84744221777696E+001-6.59965738078290E-010
 3.10221053252624E+001-2.78552035543652E+001 1.74581533467789E-009
 4.81726925765132E+001 8.85140278745089E-001-4.10112442814150E-009
 8.65430770009744E+000-5.26652170908568E+001 2.82712995000945E-009
-3.84810026151292E+001-2.40847465327123E+001-5.83403700489955E-009
 1.57554527466701E+001-3.47084963789497E+001-5.58570303971607E-009
-4.95261081618333E+001-7.29687049409219E+000-6.75589739404496E-010
-2.67485199058356E-008 6.31765368279167E-009 1.43895837262724E+000
-3.04959118006704E-009 6.71243855433295E-010 2.83151761538612E-001
 3.76696731530573E-008-1.01662100411894E-008-3.19988413937303E+000
-4.01162779446710E-009 1.03442652940813E-009 1.70658961702347E+000
 2.03026543320214E-009-5.54592324432104E-010 7.99493571317729E-002
-5.92753477902197E-009 1.55986032880662E-009 1.07105443118422E+000
 5.67858129894566E-010-1.71667661941780E-010-5.69356935999971E+000
-5.45789200020022E-009 1.41987325180440E-009 5.07073114236819E-002
 1.57598456585332E-010-3.15865332438772E-011-4.91326353617831E+000
-2.49555814485853E-009 6.38295037610402E-010 9.03555827992249E+004
-1.13305151759342E-008 3.26697692182992E-009 1.25820208693342E+005
-7.95632399511853E-009 2.29962857978998E-009 4.62090513127155E+004
 4.89145482206300E-009-1.23137145553718E-009-1.55013620275181E+005
 8.21031608506301E-009-2.19064288456058E-009-2.57106714440091E+004
 2.96501305273550E-009-8.76699357343772E-010 1.19331642585003E+005
